Version 4.1
SHEET 1 4972 936
WIRE 464 -224 416 -224
WIRE 592 -224 528 -224
WIRE 944 -224 592 -224
WIRE 1296 -208 1248 -208
WIRE 1424 -208 1360 -208
WIRE 1760 -208 1424 -208
WIRE 2128 -192 2080 -192
WIRE 2256 -192 2192 -192
WIRE 2592 -192 2256 -192
WIRE 2960 -176 2912 -176
WIRE 3088 -176 3024 -176
WIRE 3424 -176 3088 -176
WIRE 592 -160 592 -224
WIRE 3776 -160 3728 -160
WIRE 3920 -160 3856 -160
WIRE 4128 -160 4048 -160
WIRE 4304 -160 4208 -160
WIRE 1424 -144 1424 -208
WIRE 2256 -128 2256 -192
WIRE 3088 -112 3088 -176
WIRE 736 0 736 -48
WIRE 128 16 64 16
WIRE 304 16 192 16
WIRE 416 16 416 -224
WIRE 416 16 384 16
WIRE 480 16 416 16
WIRE 592 16 592 -80
WIRE 592 16 544 16
WIRE 704 16 592 16
WIRE 1568 16 1568 -32
WIRE 944 32 944 -224
WIRE 944 32 768 32
WIRE 992 32 944 32
WIRE 1136 32 992 32
WIRE 1248 32 1248 -208
WIRE 1248 32 1216 32
WIRE 1312 32 1248 32
WIRE 1424 32 1424 -64
WIRE 1424 32 1376 32
WIRE 1536 32 1424 32
WIRE 2400 32 2400 -16
WIRE 704 48 640 48
WIRE 1760 48 1760 -208
WIRE 1760 48 1600 48
WIRE 1824 48 1760 48
WIRE 1968 48 1824 48
WIRE 2080 48 2080 -192
WIRE 2080 48 2048 48
WIRE 2144 48 2080 48
WIRE 2256 48 2256 -48
WIRE 2256 48 2208 48
WIRE 2368 48 2256 48
WIRE 3232 48 3232 0
WIRE 416 64 416 16
WIRE 1536 64 1472 64
WIRE 2592 64 2592 -192
WIRE 2592 64 2432 64
WIRE 2656 64 2592 64
WIRE 2800 64 2656 64
WIRE 2912 64 2912 -176
WIRE 2912 64 2880 64
WIRE 2976 64 2912 64
WIRE 3088 64 3088 -32
WIRE 3088 64 3040 64
WIRE 3200 64 3088 64
WIRE 1248 80 1248 32
WIRE 2368 80 2304 80
WIRE 3424 80 3424 -176
WIRE 3424 80 3264 80
WIRE 3488 80 3424 80
WIRE 3632 80 3488 80
WIRE 3728 80 3728 -160
WIRE 3728 80 3712 80
WIRE 3776 80 3728 80
WIRE 736 96 736 64
WIRE 2080 96 2080 48
WIRE 3200 96 3136 96
WIRE 3920 96 3920 -160
WIRE 3920 96 3840 96
WIRE 3952 96 3920 96
WIRE 4048 96 4048 -160
WIRE 4048 96 4032 96
WIRE 4160 96 4048 96
WIRE 1568 112 1568 80
WIRE 2912 112 2912 64
WIRE 3776 112 3712 112
WIRE 4304 112 4304 -160
WIRE 4304 112 4224 112
WIRE 4432 112 4304 112
WIRE 4544 112 4496 112
WIRE 4672 112 4544 112
WIRE 4832 112 4672 112
WIRE 2400 128 2400 96
WIRE 4160 128 4064 128
WIRE 992 144 992 112
WIRE 992 144 896 144
WIRE 3232 144 3232 112
WIRE 3712 144 3712 112
WIRE 992 160 992 144
WIRE 1824 160 1824 128
WIRE 1824 160 1728 160
WIRE 4064 160 4064 128
WIRE 4672 160 4672 112
WIRE 1824 176 1824 160
WIRE 2656 176 2656 144
WIRE 2656 176 2560 176
WIRE 4544 176 4544 112
WIRE 2656 192 2656 176
WIRE 3488 192 3488 160
WIRE 3488 192 3392 192
WIRE 3488 208 3488 192
WIRE 640 224 640 48
WIRE 896 224 896 144
WIRE 896 224 640 224
WIRE 1472 240 1472 64
WIRE 1728 240 1728 160
WIRE 1728 240 1472 240
WIRE 2304 256 2304 80
WIRE 2560 256 2560 176
WIRE 2560 256 2304 256
WIRE 3136 272 3136 96
WIRE 3392 272 3392 192
WIRE 3392 272 3136 272
WIRE 4448 288 3488 288
WIRE 3488 320 3488 288
WIRE 4448 320 4448 288
WIRE 4544 320 4544 240
WIRE 4544 320 4448 320
WIRE 4672 320 4672 240
WIRE 4672 320 4544 320
WIRE 160 544 144 544
FLAG 64 48 0
FLAG 992 240 0
FLAG 416 144 0
FLAG 736 176 0
FLAG 736 -128 0
FLAG 1824 256 0
FLAG 1248 160 0
FLAG 1568 192 0
FLAG 1568 -112 0
FLAG 2656 272 0
FLAG 2080 176 0
FLAG 2400 208 0
FLAG 2400 -96 0
FLAG 2912 192 0
FLAG 3232 224 0
FLAG 3232 -80 0
FLAG 3488 320 0
FLAG 4672 320 0
FLAG 3808 -16 0
FLAG 4192 0 0
FLAG 3808 208 0
FLAG 4192 224 0
FLAG 3712 144 0
FLAG 4064 160 0
SYMBOL COMPOSITE_SRC 0 32 M0
SYMATTR InstName U1
SYMBOL res 400 0 R90
WINDOW 0 0 56 VBottom 2
WINDOW 3 32 56 VTop 2
SYMATTR InstName R1
SYMATTR Value 82.8k
SYMBOL res 432 160 R180
WINDOW 0 36 76 Left 2
WINDOW 3 36 40 Left 2
SYMATTR InstName R2
SYMATTR Value 2.67k
SYMBOL cap 480 32 R270
WINDOW 0 32 32 VTop 2
WINDOW 3 0 32 VBottom 2
SYMATTR InstName C1
SYMATTR Value 1n
SYMBOL cap 464 -208 R270
WINDOW 0 32 32 VTop 2
WINDOW 3 0 32 VBottom 2
SYMATTR InstName C2
SYMATTR Value 1n
SYMBOL res 576 -176 R0
SYMATTR InstName R3
SYMATTR Value 261k
SYMBOL res 976 16 R0
SYMATTR InstName R4
SYMATTR Value 39.2k
SYMBOL res 976 144 R0
SYMATTR InstName R5
SYMATTR Value 576
SYMBOL voltage 736 -32 R180
WINDOW 0 24 96 Left 2
WINDOW 3 24 16 Left 2
WINDOW 123 0 0 Left 0
WINDOW 39 0 0 Left 0
SYMATTR InstName V1
SYMATTR Value 15
SYMBOL voltage 736 192 R180
WINDOW 0 24 96 Left 2
WINDOW 3 24 16 Left 2
WINDOW 123 0 0 Left 0
WINDOW 39 0 0 Left 0
SYMATTR InstName V2
SYMATTR Value 15
SYMBOL res 1232 16 R90
WINDOW 0 0 56 VBottom 2
WINDOW 3 32 56 VTop 2
SYMATTR InstName R6
SYMATTR Value 86.6k
SYMBOL res 1264 176 R180
WINDOW 0 36 76 Left 2
WINDOW 3 36 40 Left 2
SYMATTR InstName R7
SYMATTR Value 2.8k
SYMBOL cap 1312 48 R270
WINDOW 0 32 32 VTop 2
WINDOW 3 0 32 VBottom 2
SYMATTR InstName C3
SYMATTR Value 1n
SYMBOL cap 1296 -192 R270
WINDOW 0 32 32 VTop 2
WINDOW 3 0 32 VBottom 2
SYMATTR InstName C4
SYMATTR Value 1n
SYMBOL res 1408 -160 R0
SYMATTR InstName R8
SYMATTR Value 267k
SYMBOL res 1808 32 R0
SYMATTR InstName R9
SYMATTR Value 40.2k
SYMBOL res 1808 160 R0
SYMATTR InstName R10
SYMATTR Value 590
SYMBOL voltage 1568 -16 R180
WINDOW 0 24 96 Left 2
WINDOW 3 24 16 Left 2
WINDOW 123 0 0 Left 0
WINDOW 39 0 0 Left 0
SYMATTR InstName V3
SYMATTR Value 15
SYMBOL voltage 1568 208 R180
WINDOW 0 24 96 Left 2
WINDOW 3 24 16 Left 2
WINDOW 123 0 0 Left 0
WINDOW 39 0 0 Left 0
SYMATTR InstName V4
SYMATTR Value 15
SYMBOL res 2064 32 R90
WINDOW 0 0 56 VBottom 2
WINDOW 3 32 56 VTop 2
SYMATTR InstName R11
SYMATTR Value 133k
SYMBOL res 2096 192 R180
WINDOW 0 36 76 Left 2
WINDOW 3 36 40 Left 2
SYMATTR InstName R12
SYMATTR Value 2.61k
SYMBOL cap 2144 64 R270
WINDOW 0 32 32 VTop 2
WINDOW 3 0 32 VBottom 2
SYMATTR InstName C5
SYMATTR Value 1n
SYMBOL cap 2128 -176 R270
WINDOW 0 32 32 VTop 2
WINDOW 3 0 32 VBottom 2
SYMATTR InstName C6
SYMATTR Value 1n
SYMBOL res 2240 -144 R0
SYMATTR InstName R13
SYMATTR Value 255k
SYMBOL res 2640 48 R0
SYMATTR InstName R14
SYMATTR Value 39.2k
SYMBOL res 2640 176 R0
SYMATTR InstName R15
SYMATTR Value 698
SYMBOL voltage 2400 0 R180
WINDOW 0 24 96 Left 2
WINDOW 3 24 16 Left 2
WINDOW 123 0 0 Left 0
WINDOW 39 0 0 Left 0
SYMATTR InstName V5
SYMATTR Value 15
SYMBOL voltage 2400 224 R180
WINDOW 0 24 96 Left 2
WINDOW 3 24 16 Left 2
WINDOW 123 0 0 Left 0
WINDOW 39 0 0 Left 0
SYMATTR InstName V6
SYMATTR Value 15
SYMBOL res 2896 48 R90
WINDOW 0 0 56 VBottom 2
WINDOW 3 32 56 VTop 2
SYMATTR InstName R16
SYMATTR Value 147k
SYMBOL res 2928 208 R180
WINDOW 0 36 76 Left 2
WINDOW 3 36 40 Left 2
SYMATTR InstName R17
SYMATTR Value 2.8k
SYMBOL cap 2976 80 R270
WINDOW 0 32 32 VTop 2
WINDOW 3 0 32 VBottom 2
SYMATTR InstName C7
SYMATTR Value 1n
SYMBOL cap 2960 -160 R270
WINDOW 0 32 32 VTop 2
WINDOW 3 0 32 VBottom 2
SYMATTR InstName C8
SYMATTR Value 1n
SYMBOL res 3072 -128 R0
SYMATTR InstName R18
SYMATTR Value 280k
SYMBOL res 3472 64 R0
SYMATTR InstName R19
SYMATTR Value 40.2k
SYMBOL res 3472 192 R0
SYMATTR InstName R20
SYMATTR Value 715
SYMBOL voltage 3232 16 R180
WINDOW 0 24 96 Left 2
WINDOW 3 24 16 Left 2
WINDOW 123 0 0 Left 0
WINDOW 39 0 0 Left 0
SYMATTR InstName V7
SYMATTR Value 15
SYMBOL voltage 3232 240 R180
WINDOW 0 24 96 Left 2
WINDOW 3 24 16 Left 2
WINDOW 123 0 0 Left 0
WINDOW 39 0 0 Left 0
SYMATTR InstName V8
SYMATTR Value 15
SYMBOL OpAmps\\ADA4096 736 -32 R0
SYMATTR InstName U2
SYMBOL OpAmps\\ADA4096 1568 -16 R0
SYMATTR InstName U3
SYMBOL OpAmps\\ADA4096 2400 0 R0
SYMATTR InstName U4
SYMBOL OpAmps\\ADA4096 3232 16 R0
SYMATTR InstName U5
SYMBOL diode 4432 128 R270
WINDOW 0 32 32 VTop 2
WINDOW 3 0 32 VBottom 2
SYMATTR InstName D1
SYMATTR Value 1N914
SYMBOL cap 4528 176 R0
SYMATTR InstName C9
SYMATTR Value 1µ
SYMBOL res 4656 144 R0
SYMATTR InstName R21
SYMATTR Value 100k
SYMBOL cap 192 0 R90
WINDOW 0 0 32 VBottom 2
WINDOW 3 32 32 VTop 2
SYMATTR InstName C10
SYMATTR Value 100p
SYMBOL res 3728 64 R90
WINDOW 0 0 56 VBottom 2
WINDOW 3 32 56 VTop 2
SYMATTR InstName R22
SYMATTR Value 4.7k
SYMBOL res 3872 -176 R90
WINDOW 0 0 56 VBottom 2
WINDOW 3 32 56 VTop 2
SYMATTR InstName R23
SYMATTR Value {Rf_Val}
SYMBOL res 4224 -176 R90
WINDOW 0 0 56 VBottom 2
WINDOW 3 32 56 VTop 2
SYMATTR InstName R24
SYMATTR Value 10k
SYMBOL OpAmps\\OP07 3808 32 R0
SYMATTR InstName U6
SYMBOL OpAmps\\OP07 4192 48 R0
SYMATTR InstName U7
SYMBOL voltage 3808 80 R180
WINDOW 0 24 96 Left 2
WINDOW 3 24 16 Left 2
WINDOW 123 0 0 Left 0
WINDOW 39 0 0 Left 0
SYMATTR InstName V10
SYMATTR Value 15
SYMBOL voltage 4192 96 R180
WINDOW 0 24 96 Left 2
WINDOW 3 24 16 Left 2
WINDOW 123 0 0 Left 0
WINDOW 39 0 0 Left 0
SYMATTR InstName V11
SYMATTR Value 15
SYMBOL voltage 3808 224 R180
WINDOW 0 24 96 Left 2
WINDOW 3 24 16 Left 2
WINDOW 123 0 0 Left 0
WINDOW 39 0 0 Left 0
SYMATTR InstName V12
SYMATTR Value 15
SYMBOL voltage 4192 240 R180
WINDOW 0 24 96 Left 2
WINDOW 3 24 16 Left 2
WINDOW 123 0 0 Left 0
WINDOW 39 0 0 Left 0
SYMATTR InstName V13
SYMATTR Value 15
SYMBOL res 4048 80 R90
WINDOW 0 0 56 VBottom 2
WINDOW 3 32 56 VTop 2
SYMATTR InstName R25
SYMATTR Value 10k
TEXT -112 264 Left 2 !.include composite_blackbox.lib
TEXT -112 312 Left 2 !.tran 20m
TEXT 3712 440 Left 2 !.param pot_pos=1\n.param Rf_Val={4.7k + pot_pos * 9.4k}
TEXT 4376 384 Left 2 ;Envelope Detection : Signal Quality Indicator (SQI)
TEXT 3544 -248 Left 2 ;Physical Mannual Control Element  : Potentiometer
TEXT 1520 -360 Left 2 ;2nd Order Chebyshev Filters Cascaded together to make an 8th Order Filter
